
 OpenBabel11232110573D

 33 36  0  0  0  0  0  0  0  0999 V2000
  -50.8520   -0.0470  -25.4200 C   0  0  0  0  0  0  0  0  0  0  0  0
  -49.7720   -0.3130  -24.5820 C   0  0  0  0  0  0  0  0  0  0  0  0
  -49.8320    0.1440  -23.2620 C   0  0  0  0  0  3  0  0  0  0  0  0
  -50.9860    0.7950  -22.7530 C   0  0  0  0  0  0  0  0  0  0  0  0
  -52.0950    0.9680  -23.5900 C   0  0  0  0  0  0  0  0  0  0  0  0
  -52.0080    0.5520  -24.9100 C   0  0  0  0  0  3  0  0  0  0  0  0
  -53.2370    1.5200  -23.1820 N   0  0  0  0  0  0  0  0  0  0  0  0
  -53.2870    1.9210  -21.9080 C   0  0  0  0  0  3  0  0  0  0  0  0
  -52.2980    1.8240  -21.0180 N   0  0  0  0  0  0  0  0  0  0  0  0
  -51.1390    1.2850  -21.4390 C   0  0  0  0  0  0  0  0  0  0  0  0
  -50.0520    1.2150  -20.5380 N   0  0  0  0  0  0  0  0  0  0  0  0
  -49.1780    1.4850  -20.9730 H   0  0  0  0  0  0  0  0  0  0  0  0
  -50.0380    1.2890  -19.1320 C   0  0  0  0  0  0  0  0  0  0  0  0
  -48.9990    0.6590  -18.4270 C   0  0  0  0  0  3  0  0  0  0  0  0
  -48.9560    0.7000  -17.0290 C   0  0  0  0  0  0  0  0  0  0  0  0
  -49.9550    1.3580  -16.3220 C   0  0  0  0  0  0  0  0  0  0  0  0
  -51.0030    1.9720  -16.9980 C   0  0  0  0  0  3  0  0  0  0  0  0
  -51.0440    1.9320  -18.3950 C   0  0  0  0  0  3  0  0  0  0  0  0
  -49.9340    1.4070  -14.9830 F   0  0  0  0  0  0  0  0  0  0  0  0
  -47.6570   -0.0710  -16.2040 Cl  0  0  0  0  0  0  0  0  0  0  0  0
  -51.3240    0.7040  -27.5320 C   0  0  0  0  0  1  0  0  0  0  0  0
  -50.8460   -0.3970  -26.7450 O   0  0  0  0  0  0  0  0  0  0  0  0
  -48.6150   -0.9650  -24.9030 O   0  0  0  0  0  0  0  0  0  0  0  0
  -48.3510   -2.2240  -24.2780 C   0  0  0  0  0  2  0  0  0  0  0  0
  -46.9480   -2.2840  -23.6730 C   0  0  0  0  0  2  0  0  0  0  0  0
  -46.8290   -1.6850  -22.2770 C   0  0  0  0  0  2  0  0  0  0  0  0
  -47.2840   -2.5660  -21.1360 N   0  0  0  0  0  4  0  0  0  0  0  0
  -48.7160   -2.3390  -20.6560 C   0  0  0  0  0  2  0  0  0  0  0  0
  -48.9450   -3.1340  -19.3630 C   0  0  0  0  0  2  0  0  0  0  0  0
  -48.6810   -4.5280  -19.5610 O   0  0  0  0  0  0  0  0  0  0  0  0
  -47.3330   -4.7710  -19.9770 C   0  0  0  0  0  2  0  0  0  0  0  0
  -47.0270   -4.0580  -21.3020 C   0  0  0  0  0  2  0  0  0  0  0  0
  -46.6880   -2.2840  -20.3470 H   0  0  0  0  0  0  0  0  0  0  0  0
  1  6  2  0  0  0  0
  1  2  1  0  0  0  0
  2  3  2  0  0  0  0
  3  4  1  0  0  0  0
  4 10  1  0  0  0  0
  5  7  1  0  0  0  0
  5  4  2  0  0  0  0
  6  5  1  0  0  0  0
  7  8  2  0  0  0  0
  8  9  1  0  0  0  0
 10  9  2  0  0  0  0
 10 11  1  0  0  0  0
 11 13  1  0  0  0  0
 12 11  1  0  0  0  0
 13 14  2  0  0  0  0
 13 18  1  0  0  0  0
 14 15  1  0  0  0  0
 15 16  2  0  0  0  0
 15 20  1  0  0  0  0
 16 19  1  0  0  0  0
 17 16  1  0  0  0  0
 18 17  2  0  0  0  0
 21 22  1  0  0  0  0
 22  1  1  0  0  0  0
 23  2  1  0  0  0  0
 23 24  1  0  0  0  0
 24 25  1  0  0  0  0
 25 26  1  0  0  0  0
 26 27  1  0  0  0  0
 27 28  1  0  0  0  0
 27 33  1  0  0  0  0
 28 29  1  0  0  0  0
 30 29  1  0  0  0  0
 31 30  1  0  0  0  0
 32 27  1  0  0  0  0
 32 31  1  0  0  0  0
M  END
>  <minimizedAffinity>
-7.72342491

$$$$
