
 OpenBabel11232110573D

 33 36  0  0  0  0  0  0  0  0999 V2000
  -49.6100    1.0520  -17.5980 C   0  0  0  0  0  0  0  0  0  0  0  0
  -48.8050    0.5270  -18.6050 C   0  0  0  0  0  0  0  0  0  0  0  0
  -49.2930    0.5370  -19.9140 C   0  0  0  0  0  3  0  0  0  0  0  0
  -50.5420    1.1320  -20.2370 C   0  0  0  0  0  0  0  0  0  0  0  0
  -51.2910    1.7360  -19.2190 C   0  0  0  0  0  0  0  0  0  0  0  0
  -50.8180    1.6790  -17.9170 C   0  0  0  0  0  3  0  0  0  0  0  0
  -52.4470    2.3620  -19.4390 N   0  0  0  0  0  0  0  0  0  0  0  0
  -52.8820    2.3910  -20.7020 C   0  0  0  0  0  3  0  0  0  0  0  0
  -52.2690    1.8420  -21.7530 N   0  0  0  0  0  0  0  0  0  0  0  0
  -51.1140    1.1930  -21.5250 C   0  0  0  0  0  0  0  0  0  0  0  0
  -50.4640    0.5560  -22.6060 N   0  0  0  0  0  0  0  0  0  0  0  0
  -50.1220   -0.3640  -22.3570 H   0  0  0  0  0  0  0  0  0  0  0  0
  -50.6100    0.7560  -23.9920 C   0  0  0  0  0  0  0  0  0  0  0  0
  -50.9340   -0.3410  -24.8090 C   0  0  0  0  0  3  0  0  0  0  0  0
  -51.0770   -0.1860  -26.1910 C   0  0  0  0  0  0  0  0  0  0  0  0
  -50.8860    1.0620  -26.7740 C   0  0  0  0  0  0  0  0  0  0  0  0
  -50.5470    2.1570  -25.9890 C   0  0  0  0  0  3  0  0  0  0  0  0
  -50.4060    2.0000  -24.6070 C   0  0  0  0  0  3  0  0  0  0  0  0
  -51.0150    1.2310  -28.0970 F   0  0  0  0  0  0  0  0  0  0  0  0
  -51.4900   -1.5520  -27.1540 Cl  0  0  0  0  0  0  0  0  0  0  0  0
  -50.3090    1.5190  -15.4670 C   0  0  0  0  0  1  0  0  0  0  0  0
  -49.2380    1.0180  -16.2790 O   0  0  0  0  0  0  0  0  0  0  0  0
  -47.5670   -0.0350  -18.4680 O   0  0  0  0  0  0  0  0  0  0  0  0
  -47.4820   -1.3850  -18.0050 C   0  0  0  0  0  2  0  0  0  0  0  0
  -47.3970   -2.3860  -19.1590 C   0  0  0  0  0  2  0  0  0  0  0  0
  -48.6720   -3.1830  -19.4050 C   0  0  0  0  0  2  0  0  0  0  0  0
  -48.4950   -4.5290  -20.0690 N   0  0  0  0  0  4  0  0  0  0  0  0
  -48.2230   -4.4950  -21.5720 C   0  0  0  0  0  2  0  0  0  0  0  0
  -48.2990   -5.9230  -22.1290 C   0  0  0  0  0  2  0  0  0  0  0  0
  -47.3760   -6.7880  -21.4570 O   0  0  0  0  0  0  0  0  0  0  0  0
  -47.6310   -6.8660  -20.0510 C   0  0  0  0  0  2  0  0  0  0  0  0
  -47.5210   -5.4840  -19.3920 C   0  0  0  0  0  2  0  0  0  0  0  0
  -49.4140   -4.9810  -19.9730 H   0  0  0  0  0  0  0  0  0  0  0  0
  1 22  1  0  0  0  0
  2 23  1  0  0  0  0
  2  1  2  0  0  0  0
  3  2  1  0  0  0  0
  4  3  2  0  0  0  0
  4  5  1  0  0  0  0
  5  6  2  0  0  0  0
  6  1  1  0  0  0  0
  7  5  1  0  0  0  0
  8  7  2  0  0  0  0
  9 10  2  0  0  0  0
  9  8  1  0  0  0  0
 10  4  1  0  0  0  0
 11 12  1  0  0  0  0
 11 10  1  0  0  0  0
 13 11  1  0  0  0  0
 14 13  2  0  0  0  0
 15 14  1  0  0  0  0
 16 15  2  0  0  0  0
 16 17  1  0  0  0  0
 17 18  2  0  0  0  0
 18 13  1  0  0  0  0
 19 16  1  0  0  0  0
 20 15  1  0  0  0  0
 22 21  1  0  0  0  0
 23 24  1  0  0  0  0
 25 24  1  0  0  0  0
 26 25  1  0  0  0  0
 27 33  1  0  0  0  0
 27 26  1  0  0  0  0
 27 32  1  0  0  0  0
 28 27  1  0  0  0  0
 29 28  1  0  0  0  0
 29 30  1  0  0  0  0
 30 31  1  0  0  0  0
 31 32  1  0  0  0  0
M  END
>  <minimizedAffinity>
-8.08008003

$$$$
