
 OpenBabel11232110573D

 33 36  0  0  0  0  0  0  0  0999 V2000
  -49.6220    0.7620  -17.7100 C   0  0  0  0  0  0  0  0  0  0  0  0
  -48.8350    0.2430  -18.7340 C   0  0  0  0  0  0  0  0  0  0  0  0
  -49.3250    0.3060  -20.0410 C   0  0  0  0  0  3  0  0  0  0  0  0
  -50.5560    0.9470  -20.3430 C   0  0  0  0  0  0  0  0  0  0  0  0
  -51.2850    1.5420  -19.3060 C   0  0  0  0  0  0  0  0  0  0  0  0
  -50.8120    1.4340  -18.0070 C   0  0  0  0  0  3  0  0  0  0  0  0
  -52.4220    2.2090  -19.5050 N   0  0  0  0  0  0  0  0  0  0  0  0
  -52.8580    2.2870  -20.7660 C   0  0  0  0  0  3  0  0  0  0  0  0
  -52.2640    1.7520  -21.8340 N   0  0  0  0  0  0  0  0  0  0  0  0
  -51.1280    1.0620  -21.6270 C   0  0  0  0  0  0  0  0  0  0  0  0
  -50.4980    0.4380  -22.7290 N   0  0  0  0  0  0  0  0  0  0  0  0
  -50.1840   -0.4990  -22.5080 H   0  0  0  0  0  0  0  0  0  0  0  0
  -50.6410    0.6830  -24.1080 C   0  0  0  0  0  0  0  0  0  0  0  0
  -51.0280   -0.3720  -24.9510 C   0  0  0  0  0  3  0  0  0  0  0  0
  -51.1700   -0.1730  -26.3280 C   0  0  0  0  0  0  0  0  0  0  0  0
  -50.9140    1.0780  -26.8780 C   0  0  0  0  0  0  0  0  0  0  0  0
  -50.5120    2.1310  -26.0670 C   0  0  0  0  0  3  0  0  0  0  0  0
  -50.3720    1.9300  -24.6900 C   0  0  0  0  0  3  0  0  0  0  0  0
  -51.0410    1.2900  -28.1960 F   0  0  0  0  0  0  0  0  0  0  0  0
  -51.6620   -1.4880  -27.3240 Cl  0  0  0  0  0  0  0  0  0  0  0  0
  -50.0530    1.5720  -15.6110 C   0  0  0  0  0  1  0  0  0  0  0  0
  -49.2500    0.6780  -16.3930 O   0  0  0  0  0  0  0  0  0  0  0  0
  -47.6140   -0.3590  -18.6170 O   0  0  0  0  0  0  0  0  0  0  0  0
  -47.5550   -1.6680  -18.0450 C   0  0  0  0  0  2  0  0  0  0  0  0
  -47.0170   -2.7050  -19.0310 C   0  0  0  0  0  2  0  0  0  0  0  0
  -47.9570   -3.0360  -20.1840 C   0  0  0  0  0  2  0  0  0  0  0  0
  -47.5210   -2.5650  -21.5520 N   0  0  0  0  0  4  0  0  0  0  0  0
  -46.0940   -2.9330  -21.9550 C   0  0  0  0  0  2  0  0  0  0  0  0
  -45.7300   -2.1950  -23.2500 C   0  0  0  0  0  2  0  0  0  0  0  0
  -46.6590   -2.5020  -24.2970 O   0  0  0  0  0  0  0  0  0  0  0  0
  -47.9990   -2.1330  -23.9590 C   0  0  0  0  0  2  0  0  0  0  0  0
  -48.4750   -2.8700  -22.6990 C   0  0  0  0  0  2  0  0  0  0  0  0
  -47.5210   -1.5390  -21.4770 H   0  0  0  0  0  0  0  0  0  0  0  0
  1 22  1  0  0  0  0
  2 23  1  0  0  0  0
  2  1  2  0  0  0  0
  3  2  1  0  0  0  0
  4  3  2  0  0  0  0
  4  5  1  0  0  0  0
  5  6  2  0  0  0  0
  6  1  1  0  0  0  0
  7  5  1  0  0  0  0
  8  7  2  0  0  0  0
  9 10  2  0  0  0  0
  9  8  1  0  0  0  0
 10  4  1  0  0  0  0
 11 12  1  0  0  0  0
 11 10  1  0  0  0  0
 13 11  1  0  0  0  0
 14 13  2  0  0  0  0
 15 14  1  0  0  0  0
 16 15  2  0  0  0  0
 16 17  1  0  0  0  0
 17 18  2  0  0  0  0
 18 13  1  0  0  0  0
 19 16  1  0  0  0  0
 20 15  1  0  0  0  0
 22 21  1  0  0  0  0
 23 24  1  0  0  0  0
 25 24  1  0  0  0  0
 26 25  1  0  0  0  0
 27 33  1  0  0  0  0
 27 26  1  0  0  0  0
 28 27  1  0  0  0  0
 29 28  1  0  0  0  0
 30 31  1  0  0  0  0
 30 29  1  0  0  0  0
 31 32  1  0  0  0  0
 32 27  1  0  0  0  0
M  END
>  <minimizedAffinity>
-8.00871944

$$$$
