
 OpenBabel11232110573D

 33 36  0  0  0  0  0  0  0  0999 V2000
  -49.9480    1.1680  -18.2230 C   0  0  0  0  0  0  0  0  0  0  0  0
  -49.1500    0.5220  -19.1630 C   0  0  0  0  0  0  0  0  0  0  0  0
  -49.6300    0.4060  -20.4710 C   0  0  0  0  0  3  0  0  0  0  0  0
  -50.8620    0.9930  -20.8640 C   0  0  0  0  0  0  0  0  0  0  0  0
  -51.6030    1.7170  -19.9220 C   0  0  0  0  0  0  0  0  0  0  0  0
  -51.1390    1.7860  -18.6170 C   0  0  0  0  0  3  0  0  0  0  0  0
  -52.7420    2.3430  -20.2160 N   0  0  0  0  0  0  0  0  0  0  0  0
  -53.1690    2.2490  -21.4780 C   0  0  0  0  0  3  0  0  0  0  0  0
  -52.5630    1.5800  -22.4610 N   0  0  0  0  0  0  0  0  0  0  0  0
  -51.4240    0.9310  -22.1560 C   0  0  0  0  0  0  0  0  0  0  0  0
  -50.7830    0.1700  -23.1600 N   0  0  0  0  0  0  0  0  0  0  0  0
  -50.4650   -0.7270  -22.8130 H   0  0  0  0  0  0  0  0  0  0  0  0
  -50.9160    0.2270  -24.5600 C   0  0  0  0  0  0  0  0  0  0  0  0
  -50.8380    1.4740  -25.2020 C   0  0  0  0  0  3  0  0  0  0  0  0
  -50.9760    1.5740  -26.5900 C   0  0  0  0  0  0  0  0  0  0  0  0
  -51.2070    0.4330  -27.3500 C   0  0  0  0  0  0  0  0  0  0  0  0
  -51.3070   -0.8090  -26.7340 C   0  0  0  0  0  3  0  0  0  0  0  0
  -51.1660   -0.9070  -25.3470 C   0  0  0  0  0  3  0  0  0  0  0  0
  -51.3450    0.5070  -28.6800 F   0  0  0  0  0  0  0  0  0  0  0  0
  -50.8590    3.1200  -27.3390 Cl  0  0  0  0  0  0  0  0  0  0  0  0
  -50.6520    1.8660  -16.1580 C   0  0  0  0  0  1  0  0  0  0  0  0
  -49.5850    1.2640  -16.9050 O   0  0  0  0  0  0  0  0  0  0  0  0
  -47.9260   -0.0510  -18.9580 O   0  0  0  0  0  0  0  0  0  0  0  0
  -47.6870   -1.3520  -19.4990 C   0  0  0  0  0  2  0  0  0  0  0  0
  -48.3030   -2.4560  -18.6370 C   0  0  0  0  0  2  0  0  0  0  0  0
  -47.3800   -3.0140  -17.5610 C   0  0  0  0  0  2  0  0  0  0  0  0
  -47.7330   -2.6590  -16.1350 N   0  0  0  0  0  4  0  0  0  0  0  0
  -46.8430   -1.6060  -15.4750 C   0  0  0  0  0  2  0  0  0  0  0  0
  -47.1800   -1.5290  -13.9800 C   0  0  0  0  0  2  0  0  0  0  0  0
  -48.5670   -1.2330  -13.7780 O   0  0  0  0  0  0  0  0  0  0  0  0
  -49.4230   -2.2240  -14.3570 C   0  0  0  0  0  2  0  0  0  0  0  0
  -49.1970   -2.3340  -15.8710 C   0  0  0  0  0  2  0  0  0  0  0  0
  -47.5580   -3.5250  -15.6090 H   0  0  0  0  0  0  0  0  0  0  0  0
  1 22  1  0  0  0  0
  2 23  1  0  0  0  0
  2  1  2  0  0  0  0
  3  2  1  0  0  0  0
  4  3  2  0  0  0  0
  4  5  1  0  0  0  0
  5  6  2  0  0  0  0
  6  1  1  0  0  0  0
  7  5  1  0  0  0  0
  8  7  2  0  0  0  0
  9 10  2  0  0  0  0
  9  8  1  0  0  0  0
 10  4  1  0  0  0  0
 11 12  1  0  0  0  0
 11 10  1  0  0  0  0
 13 11  1  0  0  0  0
 14 13  1  0  0  0  0
 15 14  2  0  0  0  0
 16 17  2  0  0  0  0
 16 15  1  0  0  0  0
 17 18  1  0  0  0  0
 18 13  2  0  0  0  0
 19 16  1  0  0  0  0
 20 15  1  0  0  0  0
 22 21  1  0  0  0  0
 24 23  1  0  0  0  0
 24 25  1  0  0  0  0
 25 26  1  0  0  0  0
 26 27  1  0  0  0  0
 27 32  1  0  0  0  0
 27 33  1  0  0  0  0
 27 28  1  0  0  0  0
 28 29  1  0  0  0  0
 29 30  1  0  0  0  0
 31 30  1  0  0  0  0
 32 31  1  0  0  0  0
M  END
>  <minimizedAffinity>
-8.0349226

$$$$
