
 OpenBabel11232110573D

 33 36  0  0  0  0  0  0  0  0999 V2000
  -50.1770    1.1420  -18.1330 C   0  0  0  0  0  0  0  0  0  0  0  0
  -49.3960    0.4250  -19.0350 C   0  0  0  0  0  0  0  0  0  0  0  0
  -49.8440    0.3140  -20.3540 C   0  0  0  0  0  3  0  0  0  0  0  0
  -51.0220    0.9730  -20.7970 C   0  0  0  0  0  0  0  0  0  0  0  0
  -51.7400    1.7640  -19.8920 C   0  0  0  0  0  0  0  0  0  0  0  0
  -51.3110    1.8300  -18.5750 C   0  0  0  0  0  3  0  0  0  0  0  0
  -52.8250    2.4580  -20.2330 N   0  0  0  0  0  0  0  0  0  0  0  0
  -53.2200    2.3660  -21.5060 C   0  0  0  0  0  3  0  0  0  0  0  0
  -52.6310    1.6380  -22.4570 N   0  0  0  0  0  0  0  0  0  0  0  0
  -51.5480    0.9220  -22.1050 C   0  0  0  0  0  0  0  0  0  0  0  0
  -50.9300    0.0980  -23.0730 N   0  0  0  0  0  0  0  0  0  0  0  0
  -50.6830   -0.8100  -22.7000 H   0  0  0  0  0  0  0  0  0  0  0  0
  -51.0170    0.1350  -24.4780 C   0  0  0  0  0  0  0  0  0  0  0  0
  -50.8900    1.3690  -25.1370 C   0  0  0  0  0  3  0  0  0  0  0  0
  -50.9810    1.4490  -26.5300 C   0  0  0  0  0  0  0  0  0  0  0  0
  -51.2150    0.3000  -27.2780 C   0  0  0  0  0  0  0  0  0  0  0  0
  -51.3630   -0.9280  -26.6470 C   0  0  0  0  0  3  0  0  0  0  0  0
  -51.2690   -1.0060  -25.2540 C   0  0  0  0  0  3  0  0  0  0  0  0
  -51.3090    0.3560  -28.6140 F   0  0  0  0  0  0  0  0  0  0  0  0
  -50.8030    2.9790  -27.3000 Cl  0  0  0  0  0  0  0  0  0  0  0  0
  -50.7740    2.1160  -16.1480 C   0  0  0  0  0  1  0  0  0  0  0  0
  -49.8480    1.2410  -16.8060 O   0  0  0  0  0  0  0  0  0  0  0  0
  -48.2200   -0.2240  -18.7810 O   0  0  0  0  0  0  0  0  0  0  0  0
  -48.2430   -1.3470  -17.8970 C   0  0  0  0  0  2  0  0  0  0  0  0
  -47.0090   -2.2350  -18.0610 C   0  0  0  0  0  2  0  0  0  0  0  0
  -47.0870   -3.2300  -19.2120 C   0  0  0  0  0  2  0  0  0  0  0  0
  -47.8530   -2.7730  -20.4330 N   0  0  0  0  0  4  0  0  0  0  0  0
  -47.0010   -2.3090  -21.6130 C   0  0  0  0  0  2  0  0  0  0  0  0
  -47.9110   -1.6670  -22.6690 C   0  0  0  0  0  2  0  0  0  0  0  0
  -48.9300   -2.5800  -23.0940 O   0  0  0  0  0  0  0  0  0  0  0  0
  -49.7660   -3.0030  -22.0110 C   0  0  0  0  0  2  0  0  0  0  0  0
  -48.9460   -3.7110  -20.9240 C   0  0  0  0  0  2  0  0  0  0  0  0
  -48.3520   -1.9320  -20.1160 H   0  0  0  0  0  0  0  0  0  0  0  0
  1 22  1  0  0  0  0
  2 23  1  0  0  0  0
  2  1  2  0  0  0  0
  3  2  1  0  0  0  0
  4  3  2  0  0  0  0
  4  5  1  0  0  0  0
  5  6  2  0  0  0  0
  6  1  1  0  0  0  0
  7  5  1  0  0  0  0
  8  7  2  0  0  0  0
  9 10  2  0  0  0  0
  9  8  1  0  0  0  0
 10  4  1  0  0  0  0
 11 12  1  0  0  0  0
 11 10  1  0  0  0  0
 13 11  1  0  0  0  0
 14 13  1  0  0  0  0
 15 14  2  0  0  0  0
 16 17  2  0  0  0  0
 16 15  1  0  0  0  0
 17 18  1  0  0  0  0
 18 13  2  0  0  0  0
 19 16  1  0  0  0  0
 20 15  1  0  0  0  0
 22 21  1  0  0  0  0
 23 24  1  0  0  0  0
 25 24  1  0  0  0  0
 26 25  1  0  0  0  0
 27 33  1  0  0  0  0
 27 26  1  0  0  0  0
 28 27  1  0  0  0  0
 29 28  1  0  0  0  0
 30 29  1  0  0  0  0
 30 31  1  0  0  0  0
 31 32  1  0  0  0  0
 32 27  1  0  0  0  0
M  END
>  <minimizedAffinity>
-8.443326

$$$$
