
 OpenBabel11282107423D

 33 36  0  0  0  0  0  0  0  0999 V2000
  -49.7150    0.9810  -17.5940 C   0  0  0  0  0  0  0  0  0  0  0  0
  -48.8340    0.4790  -18.5470 C   0  0  0  0  0  0  0  0  0  0  0  0
  -49.2360    0.5030  -19.8890 C   0  0  0  0  0  3  0  0  0  0  0  0
  -50.4640    1.0860  -20.3000 C   0  0  0  0  0  0  0  0  0  0  0  0
  -51.3060    1.6370  -19.3270 C   0  0  0  0  0  0  0  0  0  0  0  0
  -50.9190    1.5760  -17.9970 C   0  0  0  0  0  3  0  0  0  0  0  0
  -52.4690    2.2200  -19.6150 N   0  0  0  0  0  0  0  0  0  0  0  0
  -52.8280    2.2370  -20.9030 C   0  0  0  0  0  3  0  0  0  0  0  0
  -52.1190    1.7410  -21.9180 N   0  0  0  0  0  0  0  0  0  0  0  0
  -50.9350    1.1730  -21.6270 C   0  0  0  0  0  0  0  0  0  0  0  0
  -50.1590    0.6430  -22.6820 N   0  0  0  0  0  0  0  0  0  0  0  0
  -49.1750    0.8490  -22.5910 H   0  0  0  0  0  0  0  0  0  0  0  0
  -50.5420    0.2350  -23.9750 C   0  0  0  0  0  0  0  0  0  0  0  0
  -50.5350    1.0980  -25.0800 C   0  0  0  0  0  3  0  0  0  0  0  0
  -50.9390    0.6520  -26.3420 C   0  0  0  0  0  0  0  0  0  0  0  0
  -51.3680   -0.6610  -26.5090 C   0  0  0  0  0  0  0  0  0  0  0  0
  -51.4020   -1.5300  -25.4260 C   0  0  0  0  0  3  0  0  0  0  0  0
  -50.9970   -1.0810  -24.1650 C   0  0  0  0  0  3  0  0  0  0  0  0
  -51.7600   -1.1090  -27.7090 F   0  0  0  0  0  0  0  0  0  0  0  0
  -50.9100    1.7420  -27.6750 Cl  0  0  0  0  0  0  0  0  0  0  0  0
  -50.3460    1.7910  -15.5300 C   0  0  0  0  0  1  0  0  0  0  0  0
  -49.4170    0.9740  -16.2570 O   0  0  0  0  0  0  0  0  0  0  0  0
  -47.5960   -0.0610  -18.3810 O   0  0  0  0  0  0  0  0  0  0  0  0
  -47.2910   -1.0000  -17.3570 C   0  0  0  0  0  2  0  0  0  0  0  0
  -48.1190   -2.2780  -17.5160 C   0  0  0  0  0  2  0  0  0  0  0  0
  -47.6230   -3.2310  -18.6030 C   0  0  0  0  0  2  0  0  0  0  0  0
  -48.2620   -2.9360  -19.9470 N   0  0  0  0  0  4  0  0  0  0  0  0
  -47.2030   -2.5160  -20.9730 C   0  0  0  0  0  2  0  0  0  0  0  0
  -47.8810   -2.1950  -22.3100 C   0  0  0  0  0  2  0  0  0  0  0  0
  -48.6320   -3.3140  -22.7880 O   0  0  0  0  0  0  0  0  0  0  0  0
  -49.6630   -3.6960  -21.8720 C   0  0  0  0  0  2  0  0  0  0  0  0
  -49.0700   -4.1000  -20.5160 C   0  0  0  0  0  2  0  0  0  0  0  0
  -48.8970   -2.1360  -19.8280 H   0  0  0  0  0  0  0  0  0  0  0  0
  1 22  1  0  0  0  0
  2 23  1  0  0  0  0
  2  1  2  0  0  0  0
  3  2  1  0  0  0  0
  4  3  2  0  0  0  0
  4  5  1  0  0  0  0
  5  6  2  0  0  0  0
  6  1  1  0  0  0  0
  7  5  1  0  0  0  0
  8  7  2  0  0  0  0
  9 10  2  0  0  0  0
  9  8  1  0  0  0  0
 10  4  1  0  0  0  0
 11 12  1  0  0  0  0
 11 10  1  0  0  0  0
 13 11  1  0  0  0  0
 14 13  2  0  0  0  0
 15 14  1  0  0  0  0
 16 15  2  0  0  0  0
 16 17  1  0  0  0  0
 17 18  2  0  0  0  0
 18 13  1  0  0  0  0
 19 16  1  0  0  0  0
 20 15  1  0  0  0  0
 22 21  1  0  0  0  0
 23 24  1  0  0  0  0
 25 24  1  0  0  0  0
 26 25  1  0  0  0  0
 27 33  1  0  0  0  0
 27 26  1  0  0  0  0
 28 27  1  0  0  0  0
 29 28  1  0  0  0  0
 30 29  1  0  0  0  0
 30 31  1  0  0  0  0
 31 32  1  0  0  0  0
 32 27  1  0  0  0  0
M  END
>  <minimizedAffinity>
-8.26363373

$$$$

 OpenBabel11282107423D

 33 36  0  0  0  0  0  0  0  0999 V2000
  -50.0050   -1.2530  -18.3380 C   0  0  0  0  0  0  0  0  0  0  0  0
  -49.1870   -1.6090  -19.4070 C   0  0  0  0  0  0  0  0  0  0  0  0
  -49.4600   -1.0420  -20.6590 C   0  0  0  0  0  3  0  0  0  0  0  0
  -50.4820   -0.0730  -20.8430 C   0  0  0  0  0  0  0  0  0  0  0  0
  -51.2520    0.3100  -19.7390 C   0  0  0  0  0  0  0  0  0  0  0  0
  -51.0010   -0.2830  -18.5120 C   0  0  0  0  0  3  0  0  0  0  0  0
  -52.2220    1.2220  -19.8090 N   0  0  0  0  0  0  0  0  0  0  0  0
  -52.4590    1.7540  -21.0120 C   0  0  0  0  0  3  0  0  0  0  0  0
  -51.8010    1.4660  -22.1370 N   0  0  0  0  0  0  0  0  0  0  0  0
  -50.8090    0.5620  -22.0600 C   0  0  0  0  0  0  0  0  0  0  0  0
  -50.0910    0.2410  -23.2330 N   0  0  0  0  0  0  0  0  0  0  0  0
  -49.0960    0.1580  -23.0790 H   0  0  0  0  0  0  0  0  0  0  0  0
  -50.4490    0.3940  -24.5870 C   0  0  0  0  0  0  0  0  0  0  0  0
  -50.4910    1.6410  -25.2290 C   0  0  0  0  0  3  0  0  0  0  0  0
  -50.8680    1.7440  -26.5710 C   0  0  0  0  0  0  0  0  0  0  0  0
  -51.2190    0.6030  -27.2830 C   0  0  0  0  0  0  0  0  0  0  0  0
  -51.2040   -0.6410  -26.6650 C   0  0  0  0  0  3  0  0  0  0  0  0
  -50.8260   -0.7430  -25.3230 C   0  0  0  0  0  3  0  0  0  0  0  0
  -51.5850    0.6790  -28.5700 F   0  0  0  0  0  0  0  0  0  0  0  0
  -50.9020    3.2930  -27.3240 Cl  0  0  0  0  0  0  0  0  0  0  0  0
  -49.1060   -0.8600  -16.2520 C   0  0  0  0  0  1  0  0  0  0  0  0
  -49.8290   -1.7780  -17.0860 O   0  0  0  0  0  0  0  0  0  0  0  0
  -48.1250   -2.4600  -19.4390 O   0  0  0  0  0  0  0  0  0  0  0  0
  -48.2610   -3.8620  -19.6320 C   0  0  0  0  0  2  0  0  0  0  0  0
  -47.5990   -4.3050  -20.9390 C   0  0  0  0  0  2  0  0  0  0  0  0
  -48.5720   -4.7020  -22.0490 C   0  0  0  0  0  2  0  0  0  0  0  0
  -48.1960   -4.0760  -23.3780 N   0  0  0  0  0  4  0  0  0  0  0  0
  -47.8120   -2.6020  -23.1980 C   0  0  0  0  0  2  0  0  0  0  0  0
  -47.4680   -1.9890  -24.5590 C   0  0  0  0  0  2  0  0  0  0  0  0
  -46.4110   -2.7110  -25.1970 O   0  0  0  0  0  0  0  0  0  0  0  0
  -46.7630   -4.0800  -25.4260 C   0  0  0  0  0  2  0  0  0  0  0  0
  -47.0630   -4.7970  -24.1040 C   0  0  0  0  0  2  0  0  0  0  0  0
  -49.0260   -4.0950  -23.9850 H   0  0  0  0  0  0  0  0  0  0  0  0
  1 22  1  0  0  0  0
  2  1  2  0  0  0  0
  3  2  1  0  0  0  0
  4  3  2  0  0  0  0
  4  5  1  0  0  0  0
  5  6  2  0  0  0  0
  6  1  1  0  0  0  0
  7  5  1  0  0  0  0
  8  7  2  0  0  0  0
  9 10  2  0  0  0  0
  9  8  1  0  0  0  0
 10  4  1  0  0  0  0
 11 12  1  0  0  0  0
 11 10  1  0  0  0  0
 13 11  1  0  0  0  0
 14 13  1  0  0  0  0
 15 14  2  0  0  0  0
 16 17  2  0  0  0  0
 16 15  1  0  0  0  0
 17 18  1  0  0  0  0
 18 13  2  0  0  0  0
 19 16  1  0  0  0  0
 20 15  1  0  0  0  0
 22 21  1  0  0  0  0
 23  2  1  0  0  0  0
 24 23  1  0  0  0  0
 25 24  1  0  0  0  0
 26 25  1  0  0  0  0
 27 28  1  0  0  0  0
 27 26  1  0  0  0  0
 29 28  1  0  0  0  0
 30 29  1  0  0  0  0
 31 30  1  0  0  0  0
 31 32  1  0  0  0  0
 32 27  1  0  0  0  0
 33 27  1  0  0  0  0
M  END
>  <minimizedAffinity>
-7.85647964

$$$$

 OpenBabel11282107423D

 33 36  0  0  0  0  0  0  0  0999 V2000
  -49.9150   -0.2110  -18.2120 C   0  0  0  0  0  0  0  0  0  0  0  0
  -48.9920   -0.3900  -19.2390 C   0  0  0  0  0  0  0  0  0  0  0  0
  -49.3510    0.0360  -20.5250 C   0  0  0  0  0  3  0  0  0  0  0  0
  -50.5770    0.7030  -20.7850 C   0  0  0  0  0  0  0  0  0  0  0  0
  -51.4620    0.9230  -19.7230 C   0  0  0  0  0  0  0  0  0  0  0  0
  -51.1170    0.4650  -18.4610 C   0  0  0  0  0  3  0  0  0  0  0  0
  -52.6280    1.5530  -19.8650 N   0  0  0  0  0  0  0  0  0  0  0  0
  -52.9450    1.9570  -21.0990 C   0  0  0  0  0  3  0  0  0  0  0  0
  -52.1920    1.8000  -22.1900 N   0  0  0  0  0  0  0  0  0  0  0  0
  -51.0060    1.1830  -22.0400 C   0  0  0  0  0  0  0  0  0  0  0  0
  -50.1850    1.0070  -23.1760 N   0  0  0  0  0  0  0  0  0  0  0  0
  -49.2090    1.1880  -22.9900 H   0  0  0  0  0  0  0  0  0  0  0  0
  -50.5170    1.0080  -24.5450 C   0  0  0  0  0  0  0  0  0  0  0  0
  -50.8800   -0.1540  -25.2430 C   0  0  0  0  0  3  0  0  0  0  0  0
  -51.1850   -0.1060  -26.6060 C   0  0  0  0  0  0  0  0  0  0  0  0
  -51.1190    1.1030  -27.2900 C   0  0  0  0  0  0  0  0  0  0  0  0
  -50.7440    2.2640  -26.6270 C   0  0  0  0  0  3  0  0  0  0  0  0
  -50.4390    2.2140  -25.2630 C   0  0  0  0  0  3  0  0  0  0  0  0
  -51.4070    1.1710  -28.5970 F   0  0  0  0  0  0  0  0  0  0  0  0
  -51.6320   -1.5540  -27.4250 Cl  0  0  0  0  0  0  0  0  0  0  0  0
  -49.0380    0.4330  -16.1790 C   0  0  0  0  0  1  0  0  0  0  0  0
  -49.6600   -0.6200  -16.9300 O   0  0  0  0  0  0  0  0  0  0  0  0
  -47.7490   -0.9420  -19.1980 O   0  0  0  0  0  0  0  0  0  0  0  0
  -47.5160   -2.3040  -18.8610 C   0  0  0  0  0  2  0  0  0  0  0  0
  -47.7000   -3.2130  -20.0790 C   0  0  0  0  0  2  0  0  0  0  0  0
  -46.4790   -3.3190  -20.9900 C   0  0  0  0  0  2  0  0  0  0  0  0
  -46.6820   -2.5720  -22.2950 N   0  0  0  0  0  4  0  0  0  0  0  0
  -45.5090   -2.8170  -23.2520 C   0  0  0  0  0  2  0  0  0  0  0  0
  -45.7270   -2.0270  -24.5470 C   0  0  0  0  0  2  0  0  0  0  0  0
  -46.9660   -2.3850  -25.1650 O   0  0  0  0  0  0  0  0  0  0  0  0
  -48.0840   -2.1170  -24.3130 C   0  0  0  0  0  2  0  0  0  0  0  0
  -47.9850   -2.9200  -23.0100 C   0  0  0  0  0  2  0  0  0  0  0  0
  -46.6920   -1.5650  -22.0880 H   0  0  0  0  0  0  0  0  0  0  0  0
  1 22  1  0  0  0  0
  2 23  1  0  0  0  0
  2  1  2  0  0  0  0
  3  2  1  0  0  0  0
  4  3  2  0  0  0  0
  4  5  1  0  0  0  0
  5  6  2  0  0  0  0
  6  1  1  0  0  0  0
  7  5  1  0  0  0  0
  8  7  2  0  0  0  0
  9 10  2  0  0  0  0
  9  8  1  0  0  0  0
 10  4  1  0  0  0  0
 11 12  1  0  0  0  0
 11 10  1  0  0  0  0
 13 11  1  0  0  0  0
 14 13  1  0  0  0  0
 15 14  2  0  0  0  0
 16 17  2  0  0  0  0
 16 15  1  0  0  0  0
 17 18  1  0  0  0  0
 18 13  2  0  0  0  0
 19 16  1  0  0  0  0
 20 15  1  0  0  0  0
 22 21  1  0  0  0  0
 23 24  1  0  0  0  0
 25 24  1  0  0  0  0
 26 25  1  0  0  0  0
 27 33  1  0  0  0  0
 27 26  1  0  0  0  0
 28 27  1  0  0  0  0
 29 28  1  0  0  0  0
 30 29  1  0  0  0  0
 30 31  1  0  0  0  0
 31 32  1  0  0  0  0
 32 27  1  0  0  0  0
M  END
>  <minimizedAffinity>
-7.83324242

$$$$

 OpenBabel11282107423D

 33 36  0  0  0  0  0  0  0  0999 V2000
  -50.8060   -0.2710  -25.3510 C   0  0  0  0  0  0  0  0  0  0  0  0
  -49.9510   -0.9380  -24.4780 C   0  0  0  0  0  0  0  0  0  0  0  0
  -50.0730   -0.6700  -23.1080 C   0  0  0  0  0  3  0  0  0  0  0  0
  -51.0800    0.1890  -22.5920 C   0  0  0  0  0  0  0  0  0  0  0  0
  -51.9640    0.8010  -23.4880 C   0  0  0  0  0  0  0  0  0  0  0  0
  -51.8140    0.5620  -24.8450 C   0  0  0  0  0  3  0  0  0  0  0  0
  -52.9500    1.6100  -23.0990 N   0  0  0  0  0  0  0  0  0  0  0  0
  -53.0520    1.8450  -21.7870 C   0  0  0  0  0  3  0  0  0  0  0  0
  -52.2680    1.3280  -20.8390 N   0  0  0  0  0  0  0  0  0  0  0  0
  -51.2880    0.4950  -21.2310 C   0  0  0  0  0  0  0  0  0  0  0  0
  -50.4450   -0.0710  -20.2490 N   0  0  0  0  0  0  0  0  0  0  0  0
  -50.2450   -1.0470  -20.4140 H   0  0  0  0  0  0  0  0  0  0  0  0
  -50.1670    0.3560  -18.9350 C   0  0  0  0  0  0  0  0  0  0  0  0
  -50.7900    1.4660  -18.3460 C   0  0  0  0  0  3  0  0  0  0  0  0
  -50.4690    1.8600  -17.0440 C   0  0  0  0  0  0  0  0  0  0  0  0
  -49.5120    1.1570  -16.3210 C   0  0  0  0  0  0  0  0  0  0  0  0
  -48.8670    0.0660  -16.8890 C   0  0  0  0  0  3  0  0  0  0  0  0
  -49.1890   -0.3280  -18.1910 C   0  0  0  0  0  3  0  0  0  0  0  0
  -49.1890    1.5190  -15.0720 F   0  0  0  0  0  0  0  0  0  0  0  0
  -51.2610    3.2250  -16.3540 Cl  0  0  0  0  0  0  0  0  0  0  0  0
  -51.4770    0.5760  -27.3870 C   0  0  0  0  0  1  0  0  0  0  0  0
  -50.7400   -0.4500  -26.7070 O   0  0  0  0  0  0  0  0  0  0  0  0
  -48.9690   -1.8390  -24.7490 O   0  0  0  0  0  0  0  0  0  0  0  0
  -47.5860   -1.5580  -24.5650 C   0  0  0  0  0  2  0  0  0  0  0  0
  -46.7550   -2.8430  -24.5850 C   0  0  0  0  0  2  0  0  0  0  0  0
  -47.3280   -3.9910  -23.7550 C   0  0  0  0  0  2  0  0  0  0  0  0
  -47.8320   -3.5140  -22.4060 N   0  0  0  0  0  4  0  0  0  0  0  0
  -49.0500   -4.3330  -21.9590 C   0  0  0  0  0  2  0  0  0  0  0  0
  -49.5540   -3.8100  -20.6100 C   0  0  0  0  0  2  0  0  0  0  0  0
  -48.5230   -3.8580  -19.6210 O   0  0  0  0  0  0  0  0  0  0  0  0
  -47.3940   -3.0580  -19.9890 C   0  0  0  0  0  2  0  0  0  0  0  0
  -46.7770   -3.5520  -21.3030 C   0  0  0  0  0  2  0  0  0  0  0  0
  -48.1500   -2.5420  -22.5100 H   0  0  0  0  0  0  0  0  0  0  0  0
  1  6  2  0  0  0  0
  1  2  1  0  0  0  0
  2  3  2  0  0  0  0
  3  4  1  0  0  0  0
  4 10  1  0  0  0  0
  5  7  1  0  0  0  0
  5  4  2  0  0  0  0
  6  5  1  0  0  0  0
  7  8  2  0  0  0  0
  8  9  1  0  0  0  0
 10  9  2  0  0  0  0
 10 11  1  0  0  0  0
 11 13  1  0  0  0  0
 12 11  1  0  0  0  0
 13 14  2  0  0  0  0
 13 18  1  0  0  0  0
 14 15  1  0  0  0  0
 15 20  1  0  0  0  0
 15 16  2  0  0  0  0
 16 19  1  0  0  0  0
 17 16  1  0  0  0  0
 18 17  2  0  0  0  0
 21 22  1  0  0  0  0
 22  1  1  0  0  0  0
 23 24  1  0  0  0  0
 23  2  1  0  0  0  0
 25 24  1  0  0  0  0
 25 26  1  0  0  0  0
 26 27  1  0  0  0  0
 27 28  1  0  0  0  0
 27 32  1  0  0  0  0
 28 29  1  0  0  0  0
 29 30  1  0  0  0  0
 31 30  1  0  0  0  0
 32 31  1  0  0  0  0
 33 27  1  0  0  0  0
M  END
>  <minimizedAffinity>
-7.71279812

$$$$

 OpenBabel11282107423D

 33 36  0  0  0  0  0  0  0  0999 V2000
  -46.8370   -4.3230  -20.5470 C   0  0  0  0  0  0  0  0  0  0  0  0
  -48.1230   -3.7970  -20.4540 C   0  0  0  0  0  0  0  0  0  0  0  0
  -48.6470   -3.1440  -21.5770 C   0  0  0  0  0  3  0  0  0  0  0  0
  -47.9430   -3.0750  -22.8090 C   0  0  0  0  0  0  0  0  0  0  0  0
  -46.6770   -3.6640  -22.8930 C   0  0  0  0  0  0  0  0  0  0  0  0
  -46.1480   -4.2750  -21.7670 C   0  0  0  0  0  3  0  0  0  0  0  0
  -45.9460   -3.6650  -24.0080 N   0  0  0  0  0  0  0  0  0  0  0  0
  -46.4710   -3.0420  -25.0680 C   0  0  0  0  0  3  0  0  0  0  0  0
  -47.6610   -2.4400  -25.1110 N   0  0  0  0  0  0  0  0  0  0  0  0
  -48.4050   -2.4590  -23.9910 C   0  0  0  0  0  0  0  0  0  0  0  0
  -49.6710   -1.8350  -24.0070 N   0  0  0  0  0  0  0  0  0  0  0  0
  -50.3830   -2.3690  -23.5300 H   0  0  0  0  0  0  0  0  0  0  0  0
  -50.1820   -0.8390  -24.8630 C   0  0  0  0  0  0  0  0  0  0  0  0
  -49.9890    0.5320  -24.6390 C   0  0  0  0  0  3  0  0  0  0  0  0
  -50.5290    1.4840  -25.5090 C   0  0  0  0  0  0  0  0  0  0  0  0
  -51.2790    1.0750  -26.6060 C   0  0  0  0  0  0  0  0  0  0  0  0
  -51.5010   -0.2760  -26.8400 C   0  0  0  0  0  3  0  0  0  0  0  0
  -50.9600   -1.2260  -25.9690 C   0  0  0  0  0  3  0  0  0  0  0  0
  -51.8070    1.9700  -27.4520 F   0  0  0  0  0  0  0  0  0  0  0  0
  -50.2650    3.1580  -25.2020 Cl  0  0  0  0  0  0  0  0  0  0  0  0
  -46.5500   -6.3540  -19.4950 C   0  0  0  0  0  1  0  0  0  0  0  0
  -46.2350   -4.9540  -19.4920 O   0  0  0  0  0  0  0  0  0  0  0  0
  -48.9870   -3.8070  -19.4030 O   0  0  0  0  0  0  0  0  0  0  0  0
  -48.7500   -3.0890  -18.1980 C   0  0  0  0  0  2  0  0  0  0  0  0
  -49.8030   -1.9970  -17.9900 C   0  0  0  0  0  2  0  0  0  0  0  0
  -49.4230   -0.6260  -18.5500 C   0  0  0  0  0  2  0  0  0  0  0  0
  -50.5830    0.0260  -19.2790 N   0  0  0  0  0  4  0  0  0  0  0  0
  -50.8430    1.4370  -18.7370 C   0  0  0  0  0  2  0  0  0  0  0  0
  -52.0360    2.0580  -19.4710 C   0  0  0  0  0  2  0  0  0  0  0  0
  -51.8120    2.0920  -20.8830 O   0  0  0  0  0  0  0  0  0  0  0  0
  -51.6190    0.7810  -21.4240 C   0  0  0  0  0  2  0  0  0  0  0  0
  -50.3980    0.1020  -20.7920 C   0  0  0  0  0  2  0  0  0  0  0  0
  -51.4290   -0.5260  -19.0890 H   0  0  0  0  0  0  0  0  0  0  0  0
  1  2  1  0  0  0  0
  1 22  1  0  0  0  0
  2 23  1  0  0  0  0
  3  2  2  0  0  0  0
  4  3  1  0  0  0  0
  5  4  1  0  0  0  0
  5  6  1  0  0  0  0
  6  1  2  0  0  0  0
  7  5  2  0  0  0  0
  8  7  1  0  0  0  0
  9  8  2  0  0  0  0
  9 10  1  0  0  0  0
 10  4  2  0  0  0  0
 11 10  1  0  0  0  0
 11 12  1  0  0  0  0
 13 14  1  0  0  0  0
 13 11  1  0  0  0  0
 15 20  1  0  0  0  0
 15 14  2  0  0  0  0
 16 15  1  0  0  0  0
 17 16  2  0  0  0  0
 17 18  1  0  0  0  0
 18 13  2  0  0  0  0
 19 16  1  0  0  0  0
 21 22  1  0  0  0  0
 23 24  1  0  0  0  0
 24 25  1  0  0  0  0
 26 25  1  0  0  0  0
 27 33  1  0  0  0  0
 27 28  1  0  0  0  0
 27 26  1  0  0  0  0
 29 28  1  0  0  0  0
 30 29  1  0  0  0  0
 31 30  1  0  0  0  0
 31 32  1  0  0  0  0
 32 27  1  0  0  0  0
M  END
>  <minimizedAffinity>
-7.62726116

$$$$

 OpenBabel11282107423D

 33 36  0  0  0  0  0  0  0  0999 V2000
  -50.1430    1.2370  -17.7360 C   0  0  0  0  0  0  0  0  0  0  0  0
  -49.2230    0.6780  -18.6190 C   0  0  0  0  0  0  0  0  0  0  0  0
  -49.5480    0.6630  -19.9820 C   0  0  0  0  0  3  0  0  0  0  0  0
  -50.7340    1.2620  -20.4820 C   0  0  0  0  0  0  0  0  0  0  0  0
  -51.6140    1.8690  -19.5790 C   0  0  0  0  0  0  0  0  0  0  0  0
  -51.3050    1.8470  -18.2280 C   0  0  0  0  0  3  0  0  0  0  0  0
  -52.7430    2.4700  -19.9540 N   0  0  0  0  0  0  0  0  0  0  0  0
  -53.0280    2.4490  -21.2600 C   0  0  0  0  0  3  0  0  0  0  0  0
  -52.2760    1.8990  -22.2150 N   0  0  0  0  0  0  0  0  0  0  0  0
  -51.1270    1.3120  -21.8370 C   0  0  0  0  0  0  0  0  0  0  0  0
  -50.3070    0.7250  -22.8250 N   0  0  0  0  0  0  0  0  0  0  0  0
  -49.3240    0.9090  -22.6860 H   0  0  0  0  0  0  0  0  0  0  0  0
  -50.6270    0.2800  -24.1240 C   0  0  0  0  0  0  0  0  0  0  0  0
  -50.6110    1.1230  -25.2450 C   0  0  0  0  0  3  0  0  0  0  0  0
  -50.9520    0.6390  -26.5110 C   0  0  0  0  0  0  0  0  0  0  0  0
  -51.3260   -0.6910  -26.6680 C   0  0  0  0  0  0  0  0  0  0  0  0
  -51.3680   -1.5420  -25.5710 C   0  0  0  0  0  3  0  0  0  0  0  0
  -51.0260   -1.0560  -24.3050 C   0  0  0  0  0  3  0  0  0  0  0  0
  -51.6570   -1.1750  -27.8730 F   0  0  0  0  0  0  0  0  0  0  0  0
  -50.9130    1.7050  -27.8630 Cl  0  0  0  0  0  0  0  0  0  0  0  0
  -50.6520    2.3490  -15.7820 C   0  0  0  0  0  1  0  0  0  0  0  0
  -49.9220    1.2710  -16.3850 O   0  0  0  0  0  0  0  0  0  0  0  0
  -48.0120    0.1130  -18.3630 O   0  0  0  0  0  0  0  0  0  0  0  0
  -47.5810   -1.1010  -18.9660 C   0  0  0  0  0  2  0  0  0  0  0  0
  -48.4900   -2.2670  -18.5700 C   0  0  0  0  0  2  0  0  0  0  0  0
  -48.1300   -2.9400  -17.2460 C   0  0  0  0  0  2  0  0  0  0  0  0
  -47.9530   -1.9290  -16.1290 N   0  0  0  0  0  4  0  0  0  0  0  0
  -49.0590   -2.0780  -15.0770 C   0  0  0  0  0  2  0  0  0  0  0  0
  -48.8720   -1.0260  -13.9790 C   0  0  0  0  0  2  0  0  0  0  0  0
  -47.5810   -1.1370  -13.3740 O   0  0  0  0  0  0  0  0  0  0  0  0
  -46.5280   -0.9490  -14.3250 C   0  0  0  0  0  2  0  0  0  0  0  0
  -46.5950   -2.0050  -15.4340 C   0  0  0  0  0  2  0  0  0  0  0  0
  -48.0510   -0.9880  -16.5330 H   0  0  0  0  0  0  0  0  0  0  0  0
  1 22  1  0  0  0  0
  2 23  1  0  0  0  0
  2  1  2  0  0  0  0
  3  2  1  0  0  0  0
  4  3  2  0  0  0  0
  4  5  1  0  0  0  0
  5  6  2  0  0  0  0
  6  1  1  0  0  0  0
  7  5  1  0  0  0  0
  8  7  2  0  0  0  0
  9 10  2  0  0  0  0
  9  8  1  0  0  0  0
 10  4  1  0  0  0  0
 11 12  1  0  0  0  0
 11 10  1  0  0  0  0
 13 11  1  0  0  0  0
 14 13  2  0  0  0  0
 15 14  1  0  0  0  0
 16 15  2  0  0  0  0
 16 17  1  0  0  0  0
 17 18  2  0  0  0  0
 18 13  1  0  0  0  0
 19 16  1  0  0  0  0
 20 15  1  0  0  0  0
 22 21  1  0  0  0  0
 24 25  1  0  0  0  0
 24 23  1  0  0  0  0
 25 26  1  0  0  0  0
 26 27  1  0  0  0  0
 27 32  1  0  0  0  0
 27 28  1  0  0  0  0
 28 29  1  0  0  0  0
 29 30  1  0  0  0  0
 31 30  1  0  0  0  0
 32 31  1  0  0  0  0
 33 27  1  0  0  0  0
M  END
>  <minimizedAffinity>
-7.62556314

$$$$

 OpenBabel11282107423D

 33 36  0  0  0  0  0  0  0  0999 V2000
  -50.6440    0.0200  -25.3900 C   0  0  0  0  0  0  0  0  0  0  0  0
  -49.7460   -0.6210  -24.5410 C   0  0  0  0  0  0  0  0  0  0  0  0
  -49.8830   -0.4110  -23.1630 C   0  0  0  0  0  3  0  0  0  0  0  0
  -50.9420    0.3620  -22.6170 C   0  0  0  0  0  0  0  0  0  0  0  0
  -51.8650    0.9480  -23.4900 C   0  0  0  0  0  0  0  0  0  0  0  0
  -51.7020    0.7680  -24.8550 C   0  0  0  0  0  3  0  0  0  0  0  0
  -52.9000    1.6770  -23.0730 N   0  0  0  0  0  0  0  0  0  0  0  0
  -53.0140    1.8570  -21.7540 C   0  0  0  0  0  3  0  0  0  0  0  0
  -52.1970    1.3580  -20.8240 N   0  0  0  0  0  0  0  0  0  0  0  0
  -51.1660    0.6050  -21.2460 C   0  0  0  0  0  0  0  0  0  0  0  0
  -50.2860    0.0590  -20.2850 N   0  0  0  0  0  0  0  0  0  0  0  0
  -50.0240   -0.8950  -20.4850 H   0  0  0  0  0  0  0  0  0  0  0  0
  -50.0340    0.4560  -18.9560 C   0  0  0  0  0  0  0  0  0  0  0  0
  -50.7190    1.5070  -18.3300 C   0  0  0  0  0  3  0  0  0  0  0  0
  -50.4220    1.8740  -17.0150 C   0  0  0  0  0  0  0  0  0  0  0  0
  -49.4260    1.2020  -16.3150 C   0  0  0  0  0  0  0  0  0  0  0  0
  -48.7190    0.1700  -16.9190 C   0  0  0  0  0  3  0  0  0  0  0  0
  -49.0180   -0.1960  -18.2340 C   0  0  0  0  0  3  0  0  0  0  0  0
  -49.1250    1.5390  -15.0530 F   0  0  0  0  0  0  0  0  0  0  0  0
  -51.2920    3.1670  -16.2800 Cl  0  0  0  0  0  0  0  0  0  0  0  0
  -51.5760    0.6960  -27.3880 C   0  0  0  0  0  1  0  0  0  0  0  0
  -50.5700   -0.1060  -26.7520 O   0  0  0  0  0  0  0  0  0  0  0  0
  -48.7080   -1.4470  -24.8450 O   0  0  0  0  0  0  0  0  0  0  0  0
  -47.7570   -1.8820  -23.8810 C   0  0  0  0  0  2  0  0  0  0  0  0
  -47.8530   -3.3930  -23.6540 C   0  0  0  0  0  2  0  0  0  0  0  0
  -46.7500   -4.2130  -24.3220 C   0  0  0  0  0  2  0  0  0  0  0  0
  -45.8560   -3.3520  -25.1940 N   0  0  0  0  0  4  0  0  0  0  0  0
  -44.4990   -3.1170  -24.5190 C   0  0  0  0  0  2  0  0  0  0  0  0
  -43.6300   -2.2210  -25.4080 C   0  0  0  0  0  2  0  0  0  0  0  0
  -43.4570   -2.7970  -26.7060 O   0  0  0  0  0  0  0  0  0  0  0  0
  -44.7060   -2.9780  -27.3810 C   0  0  0  0  0  2  0  0  0  0  0  0
  -45.6230   -3.9200  -26.5910 C   0  0  0  0  0  2  0  0  0  0  0  0
  -46.3020   -2.4310  -25.2950 H   0  0  0  0  0  0  0  0  0  0  0  0
  1  6  2  0  0  0  0
  1  2  1  0  0  0  0
  2  3  2  0  0  0  0
  3  4  1  0  0  0  0
  4 10  1  0  0  0  0
  5  7  1  0  0  0  0
  5  4  2  0  0  0  0
  6  5  1  0  0  0  0
  7  8  2  0  0  0  0
  8  9  1  0  0  0  0
 10  9  2  0  0  0  0
 10 11  1  0  0  0  0
 11 13  1  0  0  0  0
 12 11  1  0  0  0  0
 13 14  2  0  0  0  0
 13 18  1  0  0  0  0
 14 15  1  0  0  0  0
 15 16  2  0  0  0  0
 15 20  1  0  0  0  0
 16 19  1  0  0  0  0
 17 16  1  0  0  0  0
 18 17  2  0  0  0  0
 21 22  1  0  0  0  0
 22  1  1  0  0  0  0
 23  2  1  0  0  0  0
 23 24  1  0  0  0  0
 24 25  1  0  0  0  0
 26 25  1  0  0  0  0
 27 28  1  0  0  0  0
 27 26  1  0  0  0  0
 29 28  1  0  0  0  0
 30 29  1  0  0  0  0
 31 30  1  0  0  0  0
 31 32  1  0  0  0  0
 32 27  1  0  0  0  0
 33 27  1  0  0  0  0
M  END
>  <minimizedAffinity>
-7.51728725

$$$$

 OpenBabel11282107423D

 33 36  0  0  0  0  0  0  0  0999 V2000
  -48.8010   -1.6510  -18.9610 C   0  0  0  0  0  0  0  0  0  0  0  0
  -49.2100   -1.2270  -20.2220 C   0  0  0  0  0  0  0  0  0  0  0  0
  -48.4870   -1.6830  -21.3330 C   0  0  0  0  0  3  0  0  0  0  0  0
  -47.4180   -2.6100  -21.2110 C   0  0  0  0  0  0  0  0  0  0  0  0
  -47.0660   -3.0650  -19.9360 C   0  0  0  0  0  0  0  0  0  0  0  0
  -47.7600   -2.5820  -18.8370 C   0  0  0  0  0  3  0  0  0  0  0  0
  -46.0880   -3.9460  -19.7210 N   0  0  0  0  0  0  0  0  0  0  0  0
  -45.4180   -4.3720  -20.7970 C   0  0  0  0  0  3  0  0  0  0  0  0
  -45.6540   -4.0080  -22.0580 N   0  0  0  0  0  0  0  0  0  0  0  0
  -46.6550   -3.1350  -22.2740 C   0  0  0  0  0  0  0  0  0  0  0  0
  -46.9310   -2.7350  -23.6000 N   0  0  0  0  0  0  0  0  0  0  0  0
  -47.9200   -2.6880  -23.8020 H   0  0  0  0  0  0  0  0  0  0  0  0
  -46.1150   -2.7680  -24.7480 C   0  0  0  0  0  0  0  0  0  0  0  0
  -46.2240   -3.7590  -25.7340 C   0  0  0  0  0  3  0  0  0  0  0  0
  -45.3790   -3.7590  -26.8480 C   0  0  0  0  0  0  0  0  0  0  0  0
  -44.4070   -2.7740  -26.9820 C   0  0  0  0  0  0  0  0  0  0  0  0
  -44.2660   -1.7920  -26.0090 C   0  0  0  0  0  3  0  0  0  0  0  0
  -45.1120   -1.7940  -24.8960 C   0  0  0  0  0  3  0  0  0  0  0  0
  -43.5870   -2.7560  -28.0410 F   0  0  0  0  0  0  0  0  0  0  0  0
  -45.5500   -4.9910  -28.0400 Cl  0  0  0  0  0  0  0  0  0  0  0  0
  -49.2340   -2.1860  -16.7600 C   0  0  0  0  0  1  0  0  0  0  0  0
  -49.4310   -1.2360  -17.8180 O   0  0  0  0  0  0  0  0  0  0  0  0
  -50.2340   -0.4010  -20.5670 O   0  0  0  0  0  0  0  0  0  0  0  0
  -50.1380    1.0170  -20.5130 C   0  0  0  0  0  2  0  0  0  0  0  0
  -51.4910    1.6730  -20.8000 C   0  0  0  0  0  2  0  0  0  0  0  0
  -52.0930    1.3320  -22.1620 C   0  0  0  0  0  2  0  0  0  0  0  0
  -51.0600    0.7410  -23.1030 N   0  0  0  0  0  4  0  0  0  0  0  0
  -51.5290   -0.6140  -23.6470 C   0  0  0  0  0  2  0  0  0  0  0  0
  -50.4530   -1.1990  -24.5690 C   0  0  0  0  0  2  0  0  0  0  0  0
  -50.1510   -0.3020  -25.6410 O   0  0  0  0  0  0  0  0  0  0  0  0
  -49.6600    0.9550  -25.1630 C   0  0  0  0  0  2  0  0  0  0  0  0
  -50.7020    1.6490  -24.2780 C   0  0  0  0  0  2  0  0  0  0  0  0
  -50.2020    0.5650  -22.5640 H   0  0  0  0  0  0  0  0  0  0  0  0
  1  6  1  0  0  0  0
  1 22  1  0  0  0  0
  2  1  2  0  0  0  0
  3  4  2  0  0  0  0
  3  2  1  0  0  0  0
  4  5  1  0  0  0  0
  5  7  1  0  0  0  0
  5  6  2  0  0  0  0
  8  7  2  0  0  0  0
  9  8  1  0  0  0  0
 10  9  2  0  0  0  0
 10  4  1  0  0  0  0
 11 10  1  0  0  0  0
 12 11  1  0  0  0  0
 13 11  1  0  0  0  0
 14 13  2  0  0  0  0
 15 14  1  0  0  0  0
 16 15  2  0  0  0  0
 16 17  1  0  0  0  0
 17 18  2  0  0  0  0
 18 13  1  0  0  0  0
 19 16  1  0  0  0  0
 20 15  1  0  0  0  0
 22 21  1  0  0  0  0
 23 24  1  0  0  0  0
 23  2  1  0  0  0  0
 25 24  1  0  0  0  0
 26 25  1  0  0  0  0
 27 33  1  0  0  0  0
 27 26  1  0  0  0  0
 28 27  1  0  0  0  0
 29 28  1  0  0  0  0
 30 31  1  0  0  0  0
 30 29  1  0  0  0  0
 31 32  1  0  0  0  0
 32 27  1  0  0  0  0
M  END
>  <minimizedAffinity>
-7.13091803

$$$$

 OpenBabel11282107423D

 33 36  0  0  0  0  0  0  0  0999 V2000
  -49.5310   -0.7010  -18.7480 C   0  0  0  0  0  0  0  0  0  0  0  0
  -49.9500   -0.5660  -20.0680 C   0  0  0  0  0  0  0  0  0  0  0  0
  -49.2330   -1.2520  -21.0580 C   0  0  0  0  0  3  0  0  0  0  0  0
  -48.1590   -2.1260  -20.7440 C   0  0  0  0  0  0  0  0  0  0  0  0
  -47.7950   -2.2890  -19.4030 C   0  0  0  0  0  0  0  0  0  0  0  0
  -48.4840   -1.5790  -18.4320 C   0  0  0  0  0  3  0  0  0  0  0  0
  -46.8120   -3.0990  -19.0080 N   0  0  0  0  0  0  0  0  0  0  0  0
  -46.1480   -3.7480  -19.9690 C   0  0  0  0  0  3  0  0  0  0  0  0
  -46.3940   -3.6700  -21.2780 N   0  0  0  0  0  0  0  0  0  0  0  0
  -47.4000   -2.8700  -21.6730 C   0  0  0  0  0  0  0  0  0  0  0  0
  -47.6880   -2.7700  -23.0520 N   0  0  0  0  0  0  0  0  0  0  0  0
  -48.6780   -2.7710  -23.2510 H   0  0  0  0  0  0  0  0  0  0  0  0
  -46.8790   -3.0520  -24.1700 C   0  0  0  0  0  0  0  0  0  0  0  0
  -45.9200   -2.1550  -24.6630 C   0  0  0  0  0  3  0  0  0  0  0  0
  -45.1520   -2.4730  -25.7870 C   0  0  0  0  0  0  0  0  0  0  0  0
  -45.3440   -3.6860  -26.4390 C   0  0  0  0  0  0  0  0  0  0  0  0
  -46.3010   -4.5840  -25.9820 C   0  0  0  0  0  3  0  0  0  0  0  0
  -47.0680   -4.2640  -24.8580 C   0  0  0  0  0  3  0  0  0  0  0  0
  -44.6190   -4.0100  -27.5180 F   0  0  0  0  0  0  0  0  0  0  0  0
  -43.9800   -1.3470  -26.3570 Cl  0  0  0  0  0  0  0  0  0  0  0  0
  -49.4000    1.1080  -17.3260 C   0  0  0  0  0  1  0  0  0  0  0  0
  -50.1540   -0.0480  -17.7190 O   0  0  0  0  0  0  0  0  0  0  0  0
  -50.9810    0.1620  -20.5780 O   0  0  0  0  0  0  0  0  0  0  0  0
  -50.7900    1.3030  -21.4050 C   0  0  0  0  0  2  0  0  0  0  0  0
  -51.4250    1.0980  -22.7830 C   0  0  0  0  0  2  0  0  0  0  0  0
  -50.6060    1.6420  -23.9530 C   0  0  0  0  0  2  0  0  0  0  0  0
  -50.6810    0.7320  -25.1650 N   0  0  0  0  0  4  0  0  0  0  0  0
  -51.4000   -0.5780  -24.8190 C   0  0  0  0  0  2  0  0  0  0  0  0
  -51.4340   -1.4880  -26.0510 C   0  0  0  0  0  2  0  0  0  0  0  0
  -52.0720   -0.8380  -27.1540 O   0  0  0  0  0  0  0  0  0  0  0  0
  -51.3910    0.3620  -27.5320 C   0  0  0  0  0  2  0  0  0  0  0  0
  -51.3640    1.3670  -26.3740 C   0  0  0  0  0  2  0  0  0  0  0  0
  -49.7220    0.4820  -25.4360 H   0  0  0  0  0  0  0  0  0  0  0  0
  1  6  1  0  0  0  0
  1 22  1  0  0  0  0
  2  1  2  0  0  0  0
  3  4  2  0  0  0  0
  3  2  1  0  0  0  0
  4  5  1  0  0  0  0
  5  7  1  0  0  0  0
  5  6  2  0  0  0  0
  8  7  2  0  0  0  0
  9  8  1  0  0  0  0
 10  9  2  0  0  0  0
 10  4  1  0  0  0  0
 11 10  1  0  0  0  0
 12 11  1  0  0  0  0
 13 11  1  0  0  0  0
 14 13  1  0  0  0  0
 15 14  2  0  0  0  0
 16 17  2  0  0  0  0
 16 15  1  0  0  0  0
 17 18  1  0  0  0  0
 18 13  2  0  0  0  0
 19 16  1  0  0  0  0
 20 15  1  0  0  0  0
 22 21  1  0  0  0  0
 23  2  1  0  0  0  0
 24 23  1  0  0  0  0
 25 24  1  0  0  0  0
 26 25  1  0  0  0  0
 27 28  1  0  0  0  0
 27 26  1  0  0  0  0
 29 28  1  0  0  0  0
 30 29  1  0  0  0  0
 31 30  1  0  0  0  0
 31 32  1  0  0  0  0
 32 27  1  0  0  0  0
 33 27  1  0  0  0  0
M  END
>  <minimizedAffinity>
-7.11654568

$$$$

 OpenBabel11282107423D

 33 36  0  0  0  0  0  0  0  0999 V2000
  -50.8820    0.4140  -24.4840 C   0  0  0  0  0  0  0  0  0  0  0  0
  -51.0550    0.4130  -23.1030 C   0  0  0  0  0  0  0  0  0  0  0  0
  -50.1980   -0.3860  -22.3350 C   0  0  0  0  0  3  0  0  0  0  0  0
  -49.1280   -1.1190  -22.9140 C   0  0  0  0  0  0  0  0  0  0  0  0
  -48.9400   -1.0540  -24.2990 C   0  0  0  0  0  0  0  0  0  0  0  0
  -49.8150   -0.2920  -25.0570 C   0  0  0  0  0  3  0  0  0  0  0  0
  -47.9550   -1.6930  -24.9310 N   0  0  0  0  0  0  0  0  0  0  0  0
  -47.1460   -2.4430  -24.1770 C   0  0  0  0  0  3  0  0  0  0  0  0
  -47.2270   -2.5910  -22.8530 N   0  0  0  0  0  0  0  0  0  0  0  0
  -48.2070   -1.9280  -22.2150 C   0  0  0  0  0  0  0  0  0  0  0  0
  -48.3150   -2.0610  -20.8130 N   0  0  0  0  0  0  0  0  0  0  0  0
  -48.5170   -1.1880  -20.3460 H   0  0  0  0  0  0  0  0  0  0  0  0
  -47.8280   -3.0680  -19.9560 C   0  0  0  0  0  0  0  0  0  0  0  0
  -48.0880   -4.4320  -20.1570 C   0  0  0  0  0  3  0  0  0  0  0  0
  -47.5970   -5.3940  -19.2700 C   0  0  0  0  0  0  0  0  0  0  0  0
  -46.8500   -5.0020  -18.1650 C   0  0  0  0  0  0  0  0  0  0  0  0
  -46.5940   -3.6560  -17.9330 C   0  0  0  0  0  3  0  0  0  0  0  0
  -47.0870   -2.6950  -18.8210 C   0  0  0  0  0  3  0  0  0  0  0  0
  -46.3700   -5.9070  -17.3020 F   0  0  0  0  0  0  0  0  0  0  0  0
  -47.9330   -7.0590  -19.5560 Cl  0  0  0  0  0  0  0  0  0  0  0  0
  -51.3240    0.9330  -26.6860 C   0  0  0  0  0  1  0  0  0  0  0  0
  -51.6900    1.1440  -25.3150 O   0  0  0  0  0  0  0  0  0  0  0  0
  -51.9660    1.0830  -22.3450 O   0  0  0  0  0  0  0  0  0  0  0  0
  -52.0410    0.9530  -20.9300 C   0  0  0  0  0  2  0  0  0  0  0  0
  -51.2550    2.0650  -20.2320 C   0  0  0  0  0  2  0  0  0  0  0  0
  -51.8130    2.4890  -18.8740 C   0  0  0  0  0  2  0  0  0  0  0  0
  -51.1860    1.7060  -17.7370 N   0  0  0  0  0  4  0  0  0  0  0  0
  -49.8310    1.1240  -18.1580 C   0  0  0  0  0  2  0  0  0  0  0  0
  -49.2360    0.3140  -17.0010 C   0  0  0  0  0  2  0  0  0  0  0  0
  -49.0980    1.1190  -15.8270 O   0  0  0  0  0  0  0  0  0  0  0  0
  -50.3570    1.6320  -15.3800 C   0  0  0  0  0  2  0  0  0  0  0  0
  -51.0010    2.5150  -16.4560 C   0  0  0  0  0  2  0  0  0  0  0  0
  -51.7990    0.9080  -17.5240 H   0  0  0  0  0  0  0  0  0  0  0  0
  1  2  1  0  0  0  0
  2 23  1  0  0  0  0
  2  3  2  0  0  0  0
  4  3  1  0  0  0  0
  4 10  1  0  0  0  0
  5  4  2  0  0  0  0
  6  1  2  0  0  0  0
  6  5  1  0  0  0  0
  7  5  1  0  0  0  0
  7  8  2  0  0  0  0
  8  9  1  0  0  0  0
  9 10  2  0  0  0  0
 10 11  1  0  0  0  0
 11 12  1  0  0  0  0
 11 13  1  0  0  0  0
 13 18  1  0  0  0  0
 14 13  2  0  0  0  0
 14 15  1  0  0  0  0
 15 16  2  0  0  0  0
 16 17  1  0  0  0  0
 16 19  1  0  0  0  0
 18 17  2  0  0  0  0
 20 15  1  0  0  0  0
 21 22  1  0  0  0  0
 22  1  1  0  0  0  0
 23 24  1  0  0  0  0
 24 25  1  0  0  0  0
 25 26  1  0  0  0  0
 26 27  1  0  0  0  0
 27 33  1  0  0  0  0
 27 32  1  0  0  0  0
 28 27  1  0  0  0  0
 28 29  1  0  0  0  0
 29 30  1  0  0  0  0
 30 31  1  0  0  0  0
 32 31  1  0  0  0  0
M  END
>  <minimizedAffinity>
-6.99858856

$$$$
