
 OpenBabel11232110573D

 33 36  0  0  0  0  0  0  0  0999 V2000
  -51.9580    0.5770  -23.4480 C   0  0  0  0  0  0  0  0  0  0  0  0
  -51.0290   -0.3900  -23.0750 C   0  0  0  0  0  0  0  0  0  0  0  0
  -50.5220   -0.3530  -21.7740 C   0  0  0  0  0  3  0  0  0  0  0  0
  -50.9870    0.5920  -20.8220 C   0  0  0  0  0  0  0  0  0  0  0  0
  -51.9890    1.4960  -21.1940 C   0  0  0  0  0  0  0  0  0  0  0  0
  -52.4530    1.4800  -22.5010 C   0  0  0  0  0  3  0  0  0  0  0  0
  -52.5210    2.3810  -20.3520 N   0  0  0  0  0  0  0  0  0  0  0  0
  -52.0470    2.3800  -19.1030 C   0  0  0  0  0  3  0  0  0  0  0  0
  -51.0880    1.5810  -18.6310 N   0  0  0  0  0  0  0  0  0  0  0  0
  -50.5380    0.7030  -19.4890 C   0  0  0  0  0  0  0  0  0  0  0  0
  -49.4840   -0.1230  -19.0380 N   0  0  0  0  0  0  0  0  0  0  0  0
  -48.7330   -0.1870  -19.7140 H   0  0  0  0  0  0  0  0  0  0  0  0
  -49.1020   -0.4650  -17.7260 C   0  0  0  0  0  0  0  0  0  0  0  0
  -48.2950    0.4260  -16.9980 C   0  0  0  0  0  3  0  0  0  0  0  0
  -47.8860    0.1180  -15.6960 C   0  0  0  0  0  0  0  0  0  0  0  0
  -48.2660   -1.0860  -15.1140 C   0  0  0  0  0  0  0  0  0  0  0  0
  -49.0480   -1.9900  -15.8230 C   0  0  0  0  0  3  0  0  0  0  0  0
  -49.4580   -1.6800  -17.1230 C   0  0  0  0  0  3  0  0  0  0  0  0
  -47.8820   -1.4010  -13.8700 F   0  0  0  0  0  0  0  0  0  0  0  0
  -46.9100    1.2440  -14.8320 Cl  0  0  0  0  0  0  0  0  0  0  0  0
  -53.8850    0.7110  -24.6780 C   0  0  0  0  0  1  0  0  0  0  0  0
  -52.4530    0.6570  -24.7240 O   0  0  0  0  0  0  0  0  0  0  0  0
  -50.5180   -1.3910  -23.8530 O   0  0  0  0  0  0  0  0  0  0  0  0
  -49.5340   -1.0530  -24.8330 C   0  0  0  0  0  2  0  0  0  0  0  0
  -48.1240   -1.4560  -24.3980 C   0  0  0  0  0  2  0  0  0  0  0  0
  -48.0180   -2.8510  -23.7930 C   0  0  0  0  0  2  0  0  0  0  0  0
  -48.2050   -2.9410  -22.2960 N   0  0  0  0  0  4  0  0  0  0  0  0
  -49.2550   -3.9430  -21.8190 C   0  0  0  0  0  2  0  0  0  0  0  0
  -49.4870   -3.7510  -20.3150 C   0  0  0  0  0  2  0  0  0  0  0  0
  -48.2650   -3.8940  -19.5810 O   0  0  0  0  0  0  0  0  0  0  0  0
  -47.2760   -2.9410  -19.9850 C   0  0  0  0  0  2  0  0  0  0  0  0
  -46.9330   -3.0960  -21.4740 C   0  0  0  0  0  2  0  0  0  0  0  0
  -48.5760   -2.0180  -22.0330 H   0  0  0  0  0  0  0  0  0  0  0  0
  1  2  2  0  0  0  0
  1  6  1  0  0  0  0
  2  3  1  0  0  0  0
  3  4  2  0  0  0  0
  4 10  1  0  0  0  0
  5  4  1  0  0  0  0
  5  7  1  0  0  0  0
  6  5  2  0  0  0  0
  7  8  2  0  0  0  0
  8  9  1  0  0  0  0
 10 11  1  0  0  0  0
 10  9  2  0  0  0  0
 11 13  1  0  0  0  0
 12 11  1  0  0  0  0
 13 18  2  0  0  0  0
 13 14  1  0  0  0  0
 14 15  2  0  0  0  0
 15 16  1  0  0  0  0
 15 20  1  0  0  0  0
 16 19  1  0  0  0  0
 17 16  2  0  0  0  0
 18 17  1  0  0  0  0
 22 21  1  0  0  0  0
 22  1  1  0  0  0  0
 23  2  1  0  0  0  0
 24 25  1  0  0  0  0
 24 23  1  0  0  0  0
 25 26  1  0  0  0  0
 26 27  1  0  0  0  0
 27 33  1  0  0  0  0
 27 28  1  0  0  0  0
 27 32  1  0  0  0  0
 28 29  1  0  0  0  0
 29 30  1  0  0  0  0
 31 30  1  0  0  0  0
 32 31  1  0  0  0  0
M  END
>  <minimizedAffinity>
-7.50976801

$$$$
